@<TRIPOS>MOLECULE
A
   18    19     1     0     1 
SMALL
USER_CHARGES
@<TRIPOS>ATOM
  1 N9      4.538887   -0.297039    3.315663 N*    1 A      -0.0251 ****
  2 C8      4.336753   -0.846471    2.077048 C5    1 A       0.2006 ****
  3 H8      4.152405   -0.207228    1.226292 H5    1 A       0.1553 ****
  4 N7      4.452865   -2.140973    2.049081 NB    1 A      -0.6073 ****
  5 C5      4.754063   -2.480044    3.363010 CB    1 A       0.0515 ****
  6 C6      4.998001   -3.708197    3.989216 CA    1 A       0.7009 ****
  7 N6      4.976786   -4.883494    3.345922 N2    1 A      -0.9019 ****
  8 H61     5.160722   -5.738815    3.850595 H     1 A       0.4115 ****
  9 H62     4.776859   -4.914033    2.356379 H     1 A       0.4115 ****
 10 N1      5.265303   -3.689337    5.302150 NC    1 A      -0.7615 ****
 11 C2      5.284983   -2.519871    5.935286 CQ    1 A       0.5875 ****
 12 H2      5.498276   -2.482153    6.993342 H5    1 A       0.0473 ****
 13 N3      5.072691   -1.308506    5.455779 NC    1 A      -0.6997 ****
 14 C4      4.806144   -1.356352    4.133219 CB    1 A       0.3053 ****
 15 C9      4.457711    1.005713    3.660466 CA    1 A      -0.1585 ****
 16 H91     4.708843    1.630083    2.815764 HA    1 A       0.0942 ****
 17 H92     5.087209    1.204298    4.515287 HA    1 A       0.0942 ****
 18 H93     3.436871    1.218857    3.940428 HA    1 A       0.0942 ****
@<TRIPOS>BOND
    1    13    14     1
    2    11    12     1
    3    11    13     1
    4    10    11     1
    5     7     8     1
    6     7     9     1
    7     6     7     1
    8     6    10     1
    9     5     6     1
   10     5    14     1
   11     4     5     1
   12     2     3     1
   13     2     4     1
   14     1     2     1
   15     1    14     1
   16     1    15     1
   17    15    16     1
   18    15    17     1
   19    15    18     1
@<TRIPOS>SUBSTRUCTURE
      1    A              1 ****               0 ****  **** 
