@<TRIPOS>MOLECULE
DMG
   16    15     1     0     0
SMALL
abcg2


@<TRIPOS>ATOM
      1 O1           1.2170     2.3630     6.1600 o          1 DMG      -0.657500
      2 O2          -0.9850     2.6840     6.2690 o          1 DMG      -0.657500
      3 C1           0.1860     2.9150     6.5820 c          1 DMG       0.718000
      4 C2           0.3740     4.0490     7.5870 c3         1 DMG      -0.109400
      5 H2A          0.3240     4.8960     7.1010 hx         1 DMG       0.084700
      6 H2B         -0.2800     4.0260     8.2260 hx         1 DMG       0.084700
      7 N1           1.6680     3.9890     8.3170 nx         1 DMG      -0.648000
      8 H1           2.3060     3.9000     7.7510 hn         1 DMG       0.548000
      9 C3           1.9150     5.2530     9.0540 c3         1 DMG       0.065900
     10 H3A          1.2220     5.3400     9.7750 hx         1 DMG       0.084367
     11 H3B          2.7810     5.2000     9.4360 hx         1 DMG       0.084367
     12 H3C          1.8430     5.9900     8.4190 hx         1 DMG       0.084367
     13 C4           1.7170     2.8280     9.2390 c3         1 DMG       0.065900
     14 H4A          1.6020     1.9980     8.6980 hx         1 DMG       0.084367
     15 H4B          2.5450     2.8180     9.7360 hx         1 DMG       0.084367
     16 H4C          0.9860     2.9280     9.9350 hx         1 DMG       0.084367
@<TRIPOS>BOND
     1     1     3 1   
     2     2     3 1   
     3     3     4 1   
     4     4     5 1   
     5     4     6 1   
     6     4     7 1   
     7     7     8 1   
     8     7     9 1   
     9     7    13 1   
    10     9    10 1   
    11     9    11 1   
    12     9    12 1   
    13    13    14 1   
    14    13    15 1   
    15    13    16 1   
@<TRIPOS>SUBSTRUCTURE
     1 DMG         1 TEMP              0 ****  ****    0 ROOT
