@<TRIPOS>MOLECULE
LIG
44 46 1 0 1
SMALL
USER_CHARGES
@<TRIPOS>ATOM
       1 C1          34.7810    39.6470    37.6930 c3            1 LIG       -0.199200
       2 C2          33.7710    40.7490    38.0930 ca            1 LIG        0.259900
       3 O1          33.3180    41.3790    36.8820 os            1 LIG       -0.407100
       4 C3          32.6160    42.5750    36.8620 ca            1 LIG        0.152700
       5 C4          32.1840    43.0010    35.5950 ca            1 LIG       -0.051300
       6 C5          31.4860    44.2000    35.4440 ca            1 LIG       -0.234000
       7 C6          31.1860    44.9890    36.5560 ca            1 LIG       -0.172000
       8 C7          31.5770    44.5740    37.8410 ca            1 LIG       -0.271700
       9 C8          32.3150    43.3850    38.0040 ca            1 LIG        0.259700
      10 F1          32.7370    43.0860    39.2560 f             1 LIG       -0.203100
      11 C9          32.5870    40.2780    38.9860 ce            1 LIG        0.596500
      12 O2          32.8700    40.0450    40.1590 o             1 LIG       -0.646200
      13 N1          31.4020    40.2420    38.4340 nf            1 LIG       -0.724200
      14 C10         30.1790    40.0500    39.0670 cd            1 LIG        0.716100
      15 N2          28.9950    40.1770    38.4400 nc            1 LIG       -0.593400
      16 N3          27.9180    39.9490    39.2880 nc            1 LIG       -0.144900
      17 C11         28.3530    39.6680    40.5050 cd            1 LIG        0.185800
      18 S1          27.2780    39.3220    41.8720 ss            1 LIG       -0.208600
      19 C12         25.5350    39.1610    41.2550 c3            1 LIG       -0.103600
      20 C13         24.5280    39.4510    42.4110 ca            1 LIG        0.093900
      21 C14         24.0690    40.7700    42.6100 ca            1 LIG       -0.161800
      22 C15         23.1910    41.0920    43.6740 ca            1 LIG       -0.168600
      23 C16         22.8140    40.1120    44.5960 ca            1 LIG       -0.153000
      24 C17         23.2980    38.8120    44.4470 ca            1 LIG       -0.222900
      25 C18         24.1320    38.4680    43.3600 ca            1 LIG        0.082800
      26 C19         24.7110    37.0710    43.3250 c3            1 LIG       -0.202600
      27 S2          30.0770    39.6860    40.7450 ss            1 LIG       -0.138000
      28 H1          35.5890    40.0770    37.0890 hc            1 LIG        0.052900
      29 H2          34.3130    38.8410    37.1160 hc            1 LIG        0.052900
      30 H3          35.2310    39.1950    38.5850 hc            1 LIG        0.052900
      31 H4          34.3380    41.5000    38.6610 h1            1 LIG        0.022300
      32 H5          32.4020    42.4110    34.7100 ha            1 LIG        0.126000
      33 H6          31.1640    44.5120    34.4550 ha            1 LIG        0.157800
      34 H7          30.6420    45.9150    36.3990 ha            1 LIG        0.146200
      35 H8          31.3150    45.1770    38.7050 ha            1 LIG        0.157000
      36 H9          25.4120    38.1420    40.8680 h1            1 LIG        0.069100
      37 H10         25.3900    39.8580    40.4200 h1            1 LIG        0.069100
      38 H11         24.4430    41.5460    41.9480 ha            1 LIG        0.139500
      39 H12         22.8280    42.1040    43.8290 ha            1 LIG        0.129100
      40 H13         22.1830    40.3580    45.4450 ha            1 LIG        0.130700
      41 H14         23.0480    38.0790    45.2090 ha            1 LIG        0.143600
      42 H15         25.8030    37.1530    43.2710 hc            1 LIG        0.069900
      43 H16         24.4730    36.5050    44.2330 hc            1 LIG        0.069900
      44 H17         24.3330    36.4910    42.4750 hc            1 LIG        0.069900
@<TRIPOS>BOND
       1        1        2 1
       2        1       28 1
       3        1       29 1
       4        1       30 1
       5        2        3 1
       6        2       11 1
       7        2       31 1
       8        3        4 1
       9        4        5 ar
      10        4        9 ar
      11        5        6 ar
      12        5       32 1
      13        6        7 ar
      14        6       33 1
      15        7        8 ar
      16        7       34 1
      17        8        9 ar
      18        8       35 1
      19        9       10 1
      20       11       12 1
      21       11       13 2
      22       13       14 1
      23       14       15 2
      24       14       27 1
      25       15       16 1
      26       16       17 2
      27       17       18 1
      28       17       27 1
      29       18       19 1
      30       19       20 1
      31       19       36 1
      32       19       37 1
      33       20       21 ar
      34       20       25 ar
      35       21       22 ar
      36       21       38 1
      37       22       23 ar
      38       22       39 1
      39       23       24 ar
      40       23       40 1
      41       24       25 ar
      42       24       41 1
      43       25       26 1
      44       26       42 1
      45       26       43 1
      46       26       44 1
@<TRIPOS>SUBSTRUCTURE
       1 LIG             1 RESIDUE    0 **** ROOT      0
